data_ 
loop_ 
_symmetry_equiv_pos_as_xyz 
x,y,z 
_cell_length_a	14.672394 
_cell_length_b	14.667200 
_cell_length_c	20.741586 
_cell_angle_alpha	90.000032 
_cell_angle_beta	90.000032 
_cell_angle_gamma	90.000032 
loop_
_atom_site_label 
_atom_site_fract_x 
_atom_site_fract_y 
_atom_site_fract_z 
O	0.668318 0.322649 0.094014
O	0.915336 0.085180 0.674356
O	0.237852 0.579431 0.990357
C	0.678442 0.313240 0.267596
C	0.699945 0.295458 0.203732
C	0.770887 0.235087 0.187485
C	0.647973 0.342959 0.152179
C	0.053822 0.416991 0.978299
H	0.322751 0.223646 0.639767
H	0.594641 0.140658 0.530368
O	0.333876 0.673588 0.087271
O	0.109041 0.905729 0.665380
O	0.766162 0.417459 0.996874
C	0.313677 0.689403 0.260778
C	0.297906 0.709011 0.195240
C	0.231068 0.775400 0.177706
C	0.350373 0.657449 0.147129
C	0.953828 0.577173 0.987910
H	0.617138 0.658907 0.725263
H	0.416000 0.857949 0.495892
O	0.181990 0.165682 0.591059
O	0.405289 0.405076 0.168497
O	0.927480 0.733404 0.493318
C	0.163997 0.218065 0.761235
C	0.206304 0.202527 0.700306
C	0.292732 0.239034 0.686623
C	0.161646 0.148530 0.649721
C	0.082593 0.548112 0.513956
H	0.130597 0.868878 0.216540
H	0.366919 0.083732 -0.030782
O	0.835592 0.830679 0.593457
O	0.590937 0.594639 0.169657
O	0.080884 0.261087 0.499719
C	0.834881 0.796516 0.765462
C	0.801975 0.796794 0.701663
C	0.720842 0.747993 0.685804
C	0.854532 0.846862 0.652831
C	0.930270 0.450429 0.473977
H	0.873036 0.145133 0.226343
H	0.633848 0.910381 0.050270
O	0.833202 0.826627 0.407649
O	0.606800 0.586207 0.828747
O	0.268027 0.077418 0.498488
C	0.814740 0.810876 0.233908
C	0.799329 0.790652 0.299421
C	0.734838 0.721878 0.316658
C	0.849964 0.843437 0.347899
C	0.456496 0.919009 0.504328
H	0.123904 0.842398 0.769113
H	0.912406 0.638442 0.992482
O	0.166831 0.175273 0.403800
O	0.413077 0.407258 0.824667
O	0.739669 0.918701 0.506815
C	0.198760 0.169696 0.232138
C	0.199812 0.204107 0.294472
C	0.250172 0.282666 0.310076
C	0.147526 0.155806 0.345469
C	0.554375 0.078889 0.523482
H	0.797218 0.232481 0.867090
H	0.094867 0.355111 0.975567
O	0.333902 0.662850 0.901680
O	0.088857 0.904318 0.325417
O	0.574640 0.234755 0.006586
C	0.331173 0.689753 0.728855
C	0.301263 0.695510 0.793272
C	0.223737 0.749769 0.809234
C	0.353075 0.645695 0.842519
C	0.424224 0.044432 -0.012199
H	0.337156 0.387227 0.271089
H	0.141356 0.588285 0.529169
O	0.676579 0.324807 0.907615
O	0.906320 0.098369 0.331097
O	0.426099 0.762369 -0.002118
C	0.669761 0.283820 0.733682
C	0.700962 0.284257 0.798811
C	0.776490 0.230832 0.816685
C	0.657500 0.340870 0.848700
C	0.575189 0.949499 0.033541
H	0.636400 0.626560 0.277649
H	0.872098 0.409883 0.458265
O	0.830637 0.172291 0.410583
O	0.602464 0.403514 0.829770
O	0.270529 0.923233 0.496621
C	0.817825 0.192554 0.236676
C	0.796864 0.208492 0.301981
C	0.726429 0.271474 0.318452
C	0.848372 0.156840 0.350779
C	0.458645 0.084090 0.522808
H	0.184680 0.281970 0.854346
O	0.169979 0.827495 0.401071
O	0.414910 0.590156 0.824339
O	0.740236 0.073455 0.508504
C	0.182482 0.818087 0.227885
C	0.199672 0.797289 0.291919
C	0.265892 0.732385 0.309285
C	0.148518 0.846279 0.343019
C	0.550501 0.915045 0.505970
H	0.896716 0.835290 0.775169
O	0.329343 0.334893 0.901341
O	0.088668 0.097334 0.327067
O	0.580629 0.763294 0.003915
C	0.339834 0.289839 0.731719
C	0.299020 0.304026 0.792180
C	0.213217 0.269750 0.806559
C	0.350436 0.352877 0.843142
C	0.422931 0.950321 -0.013323
H	0.365244 0.638372 0.271854
O	0.681928 0.664791 0.906700
O	0.906140 0.903974 0.328621
O	0.420579 0.232527 -0.000996
C	0.678302 0.698571 0.735594
C	0.712839 0.698676 0.797846
C	0.791580 0.748482 0.813832
C	0.664050 0.645647 0.848125
C	0.577197 0.045559 0.036023
H	0.623434 0.360978 0.278165
O	0.671738 0.670314 0.093211
O	0.916844 0.901538 0.671573
O	0.238689 0.424700 0.991238
C	0.686860 0.678783 0.266371
C	0.702833 0.700813 0.202394
C	0.767956 0.767004 0.185233
C	0.650933 0.651986 0.151454
C	0.047792 0.582191 0.986989
H	0.390025 0.646543 0.719253
O	0.334134 0.325622 0.089511
O	0.103985 0.088256 0.668057
O	0.768640 0.571737 0.997724
C	0.298015 0.325606 0.261473
C	0.297832 0.292547 0.197705
C	0.247893 0.212012 0.182031
C	0.349551 0.344108 0.149081
C	0.958149 0.410601 0.978051
H	0.700773 0.233519 0.638027
O	0.183981 0.827886 0.587050
O	0.407921 0.598468 0.166837
O	0.926417 0.263736 0.498552
C	0.182014 0.798414 0.758810
C	0.213775 0.792595 0.696003
C	0.288534 0.737059 0.679863
C	0.165974 0.846265 0.645682
C	0.086397 0.452341 0.516972
H	0.158733 0.108697 0.221984
O	0.834217 0.160916 0.598033
O	0.588499 0.401035 0.169640
O	0.082275 0.734086 0.492009
C	0.824689 0.180412 0.771933
C	0.797080 0.184230 0.707083
C	0.720519 0.233275 0.688712
C	0.852394 0.139435 0.656160
C	0.927851 0.544544 0.471448
H	0.865360 0.862969 0.223023
Zr	0.620406 0.377721 -0.000095
Zr	0.385658 0.617957 -0.004227
Zr	0.122836 0.117526 0.497654
Zr	0.886691 0.878566 0.499813
Zr	0.885027 0.117277 0.502401
Zr	0.125533 0.878798 0.495186
Zr	0.382271 0.379619 -0.003687
Zr	0.624579 0.617258 -0.000476
Zr	0.009198 -0.005028 0.618568
Zr	0.499148 0.499422 0.118122
Zr	0.507143 0.498014 0.878314
Zr	-0.000542 0.000147 0.378473
O	0.365466 0.499825 0.063562
C	0.198829 0.501775 0.988202
C	0.097698 0.500489 0.983533
O	0.636743 0.497002 0.067412
C	0.807782 0.494458 0.993075
C	0.907595 0.493112 0.985019
O	0.008336 0.860845 0.564923
C	0.005101 0.694233 0.491918
C	0.005309 0.592965 0.491981
O	0.006073 0.131802 0.567796
C	0.004046 0.303089 0.498092
C	0.007637 0.403223 0.496323
O	0.137458 0.000168 0.428428
C	0.309548 0.000377 0.502122
C	0.409275 0.001958 0.511087
O	0.866477 -0.001020 0.434080
C	0.700542 -0.003783 0.510178
C	0.599349 -0.003357 0.514315
O	0.503140 0.361822 0.930881
C	0.497839 0.193159 0.005714
C	0.500095 0.093184 0.010898
O	0.507307 0.633709 0.930004
C	0.503045 0.802219 0.003647
C	0.500444 0.903284 0.008825
O	0.500175 0.399520 0.048274
O	0.503142 0.598183 0.047704
O	0.106312 -0.002745 0.546818
O	0.906747 -0.003206 0.551119
O	0.003547 0.899796 0.447801
O	0.001841 0.098494 0.449640
O	0.405173 0.498594 0.946128
O	0.604236 0.497114 0.949613
H	0.811575 -0.001078 0.408342
H	0.191116 0.001102 0.401397
H	0.502517 0.307221 0.904782
H	0.507531 0.687832 0.903411
H	0.690856 0.496900 0.093994
H	0.310922 0.500709 0.089696
H	0.008691 0.806425 0.591211
H	0.006075 0.185510 0.594769
N	0.079626 0.185716 0.777460
N	0.417401 0.166303 0.534380
N	0.188759 0.758059 0.869986
N	0.683122 0.746080 0.625561
N	0.918561 0.326790 0.970374
H	0.850622 0.322993 0.979771
H	0.617097 0.727005 0.621951
H	0.043710 0.148616 0.744949
H	0.456171 0.222847 0.529167
H	0.124803 0.783028 0.874273
N	0.592652 0.327882 0.713653
H	0.582149 0.333348 0.665652
N	0.164469 0.412200 0.539541
H	0.205947 0.450612 0.567475
N	0.213198 0.800328 0.115717
N	0.704617 0.293892 0.380372
N	0.652026 0.087832 0.061381
H	0.652554 0.156808 0.065286
H	0.646834 0.329600 0.388345
H	0.158459 0.839990 0.106633
N	0.244718 0.174689 0.121654
N	0.718592 0.695124 0.378521
H	0.665689 0.652871 0.387319
H	0.286093 0.201275 0.087183
H	0.225370 0.108731 0.117897
H	0.748094 0.731574 0.414510
H	0.734322 0.257262 0.416233
H	0.244986 0.765554 0.079875
H	0.693810 0.050908 0.090028
H	0.350101 0.170227 0.522818
H	0.164898 0.343558 0.545660
H	0.214004 0.716618 0.904884
H	0.567153 0.376777 0.743280
H	0.045682 0.216444 0.813890
H	0.709886 0.787783 0.591370
H	0.958015 0.271364 0.978415
H	0.277706 0.717432 0.359957
H	0.365231 0.912300 -0.032372
H	0.788037 0.223916 0.137055
H	0.249525 0.308354 0.359295
H	0.779930 0.781987 0.134556
H	0.868619 0.581516 0.453673
H	0.587304 0.851477 0.498679
H	0.883613 0.139557 0.785339
H	0.311535 0.733626 0.630028
H	0.816971 0.747221 0.863116
H	0.408116 0.315660 0.722486
H	0.083654 0.646894 0.990946
